LAMMPS (20 Nov 2019)
# sample LAMMPS input script for viscosity of 2d core/corona liquid
# use shearing wall, thermostat via fix langevin
package         gpu 1
# settings

variable  r index 0.54
variable  s  equal  0.1
variable  s1 equal -1.0*$s
variable  s1 equal -1.0*0.1

variable	x equal 20
variable	y equal 20
variable	ylo equal -2.5
variable	yhi equal 23

#variable	rho equal 0.3
variable        t equal 0.1
variable	rc equal 2.5

#variable	srate equal 2.7
#variable         srate equal 0.01
# problem setup

units		lj
dimension	2
atom_style	atomic
neigh_modify	delay 0 every 1

lattice         sq2 $r
lattice         sq2 0.54
Lattice spacing in x,y,z = 1.9245 1.9245 1.9245
region          simbox block 0 20 -2.5 23 -0.1 0.1
create_box      3 simbox
Created orthogonal box = (0 -4.81125 -0.19245) to (38.49 44.2635 0.19245)
create_atoms    1 box
Created 1020 atoms
mass            * 1.0

#######################################Potentials##################################
pair_style	table/gpu spline 1000
pair_coeff	* * CG.table S-S 10
  Should only be flagged at inflection points (src/pair_table.cpp:483)

######################################################Walls##########################
region		lower block INF INF INF 0.0 INF INF
region		upper block INF INF $y INF INF INF
region		upper block INF INF 20 INF INF INF

group		lower region lower
120 atoms in group lower
group		upper region upper
120 atoms in group upper
set		group lower type 2
  120 settings made for type
set		group upper type 3
  120 settings made for type
group		wall union lower upper
240 atoms in group wall
group		flow subtract all wall
780 atoms in group flow

#####################################################################################3
velocity        flow create $t 97287
velocity        flow create 0.1 97287
velocity	upper set $s 0.0 0.0 units box
velocity	upper set 0.1 0.0 0.0 units box
velocity	lower set -0.1 0.0 0.0 units box

compute		thermal flow temp/partial 0 1 0
compute		flow flow temp
################################################Langevin Dynamics######################3
fix             1 all nve
fix	        2 flow langevin $t $t 1 498094
fix	        2 flow langevin 0.1 $t 1 498094
fix	        2 flow langevin 0.1 0.1 1 498094
fix_modify      2 temp thermal

fix		3 wall setforce 0.0 0.0 0.0

compute         layers all chunk/atom bin/1d y center 0.05 units reduced
fix		4 all ave/chunk 20 500 10000 layers vx file profile.wall.2d

fix	        5 all enforce2d

# equilibration run

variable        ybox equal $y*ylat
variable        ybox equal 20*ylat
compute		tilt flow temp/ramp vx 0 0.1 y 0 38.490017945975 units box

thermo          1000
thermo_style	custom step temp c_tilt epair etotal press pxy

run	        1000000
Step Temp c_tilt E_pair TotEng Press Pxy
0  0.077625123   0.10150789    185.81789    185.89544    103.55431 0.0012914899
Averages over the last 501 of 1001 rows, steps 500000 to 1000000:
Temp c_tilt E_pair TotEng Press Pxy
0.0917879 0.120089 182.506 182.598 108.77 -0.881815
Loop time of 1179.46 on 1 procs for 1000000 steps with 1020 atoms

variable	visc equal -pxy/(v_s/ly)
fix		vave all ave/time 1000 1 1000 v_visc ave running

thermo_style	custom step temp pxy v_visc f_vave
thermo_modify	temp tilt

dump	        1 all atom 100 dump.wall.$r.2d
dump	        1 all atom 100 dump.wall.0.54.2d

timestep	 0.001
run		1000000
Step Temp Pxy v_visc f_vave
1000000    0.1262954   -1.2913279    633.71621    633.71621
Averages over the last 501 of 1001 rows, steps 1500000 to 2000000:
Temp Pxy v_visc f_vave
0.11723 -0.869621 426.765 427.139
Loop time of 1182.36 on 1 procs for 1000000 steps with 1020 atoms

write_data      wall.2d.$r.data
write_data      wall.2d.0.54.data
clear

next r
jump in.wall.2d

Please see the log.cite file for references relevant to this simulation
